UoNewCastle/spm_u/loads_spm_u.dss
new load.load_11296074 bus1=11296074.1 kv=0.2396003617136947  phases=1 kW=1 pf=1
new load.load_10640935 bus1=10640935.2 kv=0.2396003617136947  phases=1 kW=1 pf=1
new load.load_10722436 bus1=10722436.3 kv=0.2396003617136947  phases=1 kW=1 pf=1
new load.load_11289596 bus1=11289596.1 kv=0.2396003617136947  phases=1 kW=1 pf=1
new load.load_10639856 bus1=10639856.2 kv=0.2396003617136947  phases=1 kW=1 pf=1
new load.load_10722423 bus1=10722423.3 kv=0.2396003617136947  phases=1 kW=1 pf=1
new load.load_12433527 bus1=12433527.1 kv=0.2396003617136947  phases=1 kW=1 pf=1
new load.load_12896606 bus1=12896606.2 kv=0.2396003617136947  phases=1 kW=1 pf=1
new load.load_11609722 bus1=11609722.3 kv=0.2396003617136947  phases=1 kW=1 pf=1
new load.load_10705658 bus1=10705658.1 kv=0.2396003617136947  phases=1 kW=1 pf=1
new load.load_12572764 bus1=12572764.2 kv=0.2396003617136947  phases=1 kW=1 pf=1
new load.load_10722424 bus1=10722424.3 kv=0.2396003617136947  phases=1 kW=1 pf=1
new load.load_12433840 bus1=12433840.1 kv=0.2396003617136947  phases=1 kW=1 pf=1
new load.load_10627928 bus1=10627928.2 kv=0.2396003617136947  phases=1 kW=1 pf=1
new load.load_10639843 bus1=10639843.3 kv=0.2396003617136947  phases=1 kW=1 pf=1
new load.load_11197487 bus1=11197487.1 kv=0.2396003617136947  phases=1 kW=1 pf=1
new load.load_10741461 bus1=10741461.2 kv=0.2396003617136947  phases=1 kW=1 pf=1
new load.load_10626849 bus1=10626849.3 kv=0.2396003617136947  phases=1 kW=1 pf=1
new load.load_10619155 bus1=10619155.1 kv=0.2396003617136947  phases=1 kW=1 pf=1
new load.load_10617915 bus1=10617915.2 kv=0.2396003617136947  phases=1 kW=1 pf=1
new load.load_12748034 bus1=12748034.3 kv=0.2396003617136947  phases=1 kW=1 pf=1
new load.load_12077335 bus1=12077335.1 kv=0.2396003617136947  phases=1 kW=1 pf=1
new load.load_10616850 bus1=10616850.2 kv=0.2396003617136947  phases=1 kW=1 pf=1
new load.load_11280598 bus1=11280598.3 kv=0.2396003617136947  phases=1 kW=1 pf=1
new load.load_10639857 bus1=10639857.1 kv=0.2396003617136947  phases=1 kW=1 pf=1
new load.load_10616895 bus1=10616895.2 kv=0.2396003617136947  phases=1 kW=1 pf=1
new load.load_10626251 bus1=10626251.3 kv=0.2396003617136947  phases=1 kW=1 pf=1
new load.load_10621393 bus1=10621393.1 kv=0.2396003617136947  phases=1 kW=1 pf=1
new load.load_10619156 bus1=10619156.2 kv=0.2396003617136947  phases=1 kW=1 pf=1
new load.load_11992358 bus1=11992358.3 kv=0.2396003617136947  phases=1 kW=1 pf=1
new load.load_11197486 bus1=11197486.1 kv=0.2396003617136947  phases=1 kW=1 pf=1
new load.load_10616394 bus1=10616394.2 kv=0.2396003617136947  phases=1 kW=1 pf=1
new load.load_10584929 bus1=10584929.3 kv=0.2396003617136947  phases=1 kW=1 pf=1
new load.load_10731082 bus1=10731082.1 kv=0.2396003617136947  phases=1 kW=1 pf=1
new load.load_10629678 bus1=10629678.2 kv=0.2396003617136947  phases=1 kW=1 pf=1
new load.load_11992359 bus1=11992359.3 kv=0.2396003617136947  phases=1 kW=1 pf=1
new load.load_13559186 bus1=13559186.1 kv=0.2396003617136947  phases=1 kW=1 pf=1
new load.load_10639855 bus1=10639855.2 kv=0.2396003617136947  phases=1 kW=1 pf=1
new load.load_10624411 bus1=10624411.3 kv=0.2396003617136947  phases=1 kW=1 pf=1
new load.load_10620180 bus1=10620180.1 kv=0.2396003617136947  phases=1 kW=1 pf=1
new load.load_10628580 bus1=10628580.2 kv=0.2396003617136947  phases=1 kW=1 pf=1
new load.load_10628679 bus1=10628679.3 kv=0.2396003617136947  phases=1 kW=1 pf=1
new load.load_10619168 bus1=10619168.1 kv=0.2396003617136947  phases=1 kW=1 pf=1
new load.load_10737716 bus1=10737716.2 kv=0.2396003617136947  phases=1 kW=1 pf=1
new load.load_10753690 bus1=10753690.3 kv=0.2396003617136947  phases=1 kW=1 pf=1
new load.load_10643523 bus1=10643523.1 kv=0.2396003617136947  phases=1 kW=1 pf=1
new load.load_10723586 bus1=10723586.2 kv=0.2396003617136947  phases=1 kW=1 pf=1
new load.load_10745555 bus1=10745555.3 kv=0.2396003617136947  phases=1 kW=1 pf=1
new load.load_10644290 bus1=10644290.1 kv=0.2396003617136947  phases=1 kW=1 pf=1
new load.load_10624437 bus1=10624437.2 kv=0.2396003617136947  phases=1 kW=1 pf=1
new load.load_11939163 bus1=11939163.3 kv=0.2396003617136947  phases=1 kW=1 pf=1
new load.load_10627899 bus1=10627899.1 kv=0.2396003617136947  phases=1 kW=1 pf=1
new load.load_10624423 bus1=10624423.2 kv=0.2396003617136947  phases=1 kW=1 pf=1
new load.load_10624438 bus1=10624438.3 kv=0.2396003617136947  phases=1 kW=1 pf=1
new load.load_10624439 bus1=10624439.1 kv=0.2396003617136947  phases=1 kW=1 pf=1
new load.load_10625407 bus1=10625407.2 kv=0.2396003617136947  phases=1 kW=1 pf=1
new load.load_10624410 bus1=10624410.3 kv=0.2396003617136947  phases=1 kW=1 pf=1
new load.load_10624424 bus1=10624424.1 kv=0.2396003617136947  phases=1 kW=1 pf=1
new load.load_10745569 bus1=10745569.2 kv=0.2396003617136947  phases=1 kW=1 pf=1
new load.load_10624426 bus1=10624426.3 kv=0.2396003617136947  phases=1 kW=1 pf=1
new load.load_10727473 bus1=10727473.1 kv=0.2396003617136947  phases=1 kW=1 pf=1
new load.load_10722444 bus1=10722444.2 kv=0.2396003617136947  phases=1 kW=1 pf=1
new load.load_10632045 bus1=10632045.3 kv=0.2396003617136947  phases=1 kW=1 pf=1
new load.load_10706501 bus1=10706501.1 kv=0.2396003617136947  phases=1 kW=1 pf=1
new load.load_10755970 bus1=10755970.2 kv=0.2396003617136947  phases=1 kW=1 pf=1
new load.load_10722438 bus1=10722438.3 kv=0.2396003617136947  phases=1 kW=1 pf=1
new load.load_10643441 bus1=10643441.1 kv=0.2396003617136947  phases=1 kW=1 pf=1
new load.load_12074952 bus1=12074952.2 kv=0.2396003617136947  phases=1 kW=1 pf=1
new load.load_10632759 bus1=10632759.3 kv=0.2396003617136947  phases=1 kW=1 pf=1
new load.load_10644289 bus1=10644289.1 kv=0.2396003617136947  phases=1 kW=1 pf=1
new load.load_10639865 bus1=10639865.2 kv=0.2396003617136947  phases=1 kW=1 pf=1
new load.load_10623198 bus1=10623198.3 kv=0.2396003617136947  phases=1 kW=1 pf=1
new load.load_10639859 bus1=10639859.1 kv=0.2396003617136947  phases=1 kW=1 pf=1
new load.load_10625717 bus1=10625717.2 kv=0.2396003617136947  phases=1 kW=1 pf=1
new load.load_10628578 bus1=10628578.3 kv=0.2396003617136947  phases=1 kW=1 pf=1
new load.load_10639869 bus1=10639869.1 kv=0.2396003617136947  phases=1 kW=1 pf=1
new load.load_10621045 bus1=10621045.2 kv=0.2396003617136947  phases=1 kW=1 pf=1
new load.load_10639867 bus1=10639867.3 kv=0.2396003617136947  phases=1 kW=1 pf=1
new load.load_10735394 bus1=10735394.1 kv=0.2396003617136947  phases=1 kW=1 pf=1
new load.load_10632785 bus1=10632785.2 kv=0.2396003617136947  phases=1 kW=1 pf=1
new load.load_10728178 bus1=10728178.3 kv=0.2396003617136947  phases=1 kW=1 pf=1
new load.load_10643525 bus1=10643525.1 kv=0.2396003617136947  phases=1 kW=1 pf=1
new load.load_10627557 bus1=10627557.2 kv=0.2396003617136947  phases=1 kW=1 pf=1
new load.load_10722446 bus1=10722446.3 kv=0.2396003617136947  phases=1 kW=1 pf=1
new load.load_10616225 bus1=10616225.1 kv=0.2396003617136947  phases=1 kW=1 pf=1
new load.load_10624422 bus1=10624422.2 kv=0.2396003617136947  phases=1 kW=1 pf=1
new load.load_10745570 bus1=10745570.3 kv=0.2396003617136947  phases=1 kW=1 pf=1
new load.load_10623321 bus1=10623321.1 kv=0.2396003617136947  phases=1 kW=1 pf=1
new load.load_10628579 bus1=10628579.2 kv=0.2396003617136947  phases=1 kW=1 pf=1
new load.load_10619170 bus1=10619170.3 kv=0.2396003617136947  phases=1 kW=1 pf=1
new load.load_10643483 bus1=10643483.1 kv=0.2396003617136947  phases=1 kW=1 pf=1
new load.load_10628577 bus1=10628577.2 kv=0.2396003617136947  phases=1 kW=1 pf=1
new load.load_10721676 bus1=10721676.3 kv=0.2396003617136947  phases=1 kW=1 pf=1
new load.load_10745622 bus1=10745622.1 kv=0.2396003617136947  phases=1 kW=1 pf=1
new load.load_10619316 bus1=10619316.2 kv=0.2396003617136947  phases=1 kW=1 pf=1
new load.load_10643524 bus1=10643524.3 kv=0.2396003617136947  phases=1 kW=1 pf=1
new load.load_10639880 bus1=10639880.1 kv=0.2396003617136947  phases=1 kW=1 pf=1
new load.load_10728180 bus1=10728180.2 kv=0.2396003617136947  phases=1 kW=1 pf=1
new load.load_10741434 bus1=10741434.3 kv=0.2396003617136947  phases=1 kW=1 pf=1
new load.load_10631711 bus1=10631711.1 kv=0.2396003617136947  phases=1 kW=1 pf=1
new load.load_10628595 bus1=10628595.2 kv=0.2396003617136947  phases=1 kW=1 pf=1
new load.load_10639868 bus1=10639868.3 kv=0.2396003617136947  phases=1 kW=1 pf=1
new load.load_10725750 bus1=10725750.1 kv=0.2396003617136947  phases=1 kW=1 pf=1
new load.load_10720481 bus1=10720481.2 kv=0.2396003617136947  phases=1 kW=1 pf=1
new load.load_10745588 bus1=10745588.3 kv=0.2396003617136947  phases=1 kW=1 pf=1
new load.load_10624425 bus1=10624425.1 kv=0.2396003617136947  phases=1 kW=1 pf=1
new load.load_10706500 bus1=10706500.2 kv=0.2396003617136947  phases=1 kW=1 pf=1
new load.load_10748903 bus1=10748903.3 kv=0.2396003617136947  phases=1 kW=1 pf=1
new load.load_10748534 bus1=10748534.1 kv=0.2396003617136947  phases=1 kW=1 pf=1
new load.load_10738092 bus1=10738092.2 kv=0.2396003617136947  phases=1 kW=1 pf=1
new load.load_10722445 bus1=10722445.3 kv=0.2396003617136947  phases=1 kW=1 pf=1
new load.load_10639866 bus1=10639866.1 kv=0.2396003617136947  phases=1 kW=1 pf=1
new load.load_10741651 bus1=10741651.2 kv=0.2396003617136947  phases=1 kW=1 pf=1
new load.load_10632751 bus1=10632751.3 kv=0.2396003617136947  phases=1 kW=1 pf=1
new load.load_10741454 bus1=10741454.1 kv=0.2396003617136947  phases=1 kW=1 pf=1
new load.load_10636083 bus1=10636083.2 kv=0.2396003617136947  phases=1 kW=1 pf=1
new load.load_10639858 bus1=10639858.3 kv=0.2396003617136947  phases=1 kW=1 pf=1
new load.load_13685478 bus1=13685478.1 kv=0.2396003617136947  phases=1 kW=1 pf=1
new load.load_13663997 bus1=13663997.2 kv=0.2396003617136947  phases=1 kW=1 pf=1
new load.load_13664006 bus1=13664006.3 kv=0.2396003617136947  phases=1 kW=1 pf=1
new load.load_13662826 bus1=13662826.1 kv=0.2396003617136947  phases=1 kW=1 pf=1
new load.load_13662863 bus1=13662863.2 kv=0.2396003617136947  phases=1 kW=1 pf=1
new load.load_13680032 bus1=13680032.3 kv=0.2396003617136947  phases=1 kW=1 pf=1
new load.load_13680047 bus1=13680047.1 kv=0.2396003617136947  phases=1 kW=1 pf=1
new load.load_13686782 bus1=13686782.2 kv=0.2396003617136947  phases=1 kW=1 pf=1
new load.load_13664099 bus1=13664099.3 kv=0.2396003617136947  phases=1 kW=1 pf=1
new load.load_13683065 bus1=13683065.1 kv=0.2396003617136947  phases=1 kW=1 pf=1
new load.load_13692219 bus1=13692219.2 kv=0.2396003617136947  phases=1 kW=1 pf=1
new load.load_13685462 bus1=13685462.3 kv=0.2396003617136947  phases=1 kW=1 pf=1
new load.load_13680029 bus1=13680029.1 kv=0.2396003617136947  phases=1 kW=1 pf=1
new load.load_13680702 bus1=13680702.2 kv=0.2396003617136947  phases=1 kW=1 pf=1
new load.load_13680691 bus1=13680691.3 kv=0.2396003617136947  phases=1 kW=1 pf=1
new load.load_13664113 bus1=13664113.1 kv=0.2396003617136947  phases=1 kW=1 pf=1
new load.load_13680715 bus1=13680715.2 kv=0.2396003617136947  phases=1 kW=1 pf=1
new load.load_13680717 bus1=13680717.3 kv=0.2396003617136947  phases=1 kW=1 pf=1
new load.load_13686742 bus1=13686742.1 kv=0.2396003617136947  phases=1 kW=1 pf=1
new load.load_13686745 bus1=13686745.2 kv=0.2396003617136947  phases=1 kW=1 pf=1
new load.load_13664020 bus1=13664020.3 kv=0.2396003617136947  phases=1 kW=1 pf=1
new load.load_13684260 bus1=13684260.1 kv=0.2396003617136947  phases=1 kW=1 pf=1
new load.load_13662822 bus1=13662822.2 kv=0.2396003617136947  phases=1 kW=1 pf=1
new load.load_13686793 bus1=13686793.3 kv=0.2396003617136947  phases=1 kW=1 pf=1
new load.load_13685491 bus1=13685491.1 kv=0.2396003617136947  phases=1 kW=1 pf=1
new load.load_13662838 bus1=13662838.2 kv=0.2396003617136947  phases=1 kW=1 pf=1
new load.load_13662843 bus1=13662843.3 kv=0.2396003617136947  phases=1 kW=1 pf=1
new load.load_13662852 bus1=13662852.1 kv=0.2396003617136947  phases=1 kW=1 pf=1
new load.load_13686811 bus1=13686811.2 kv=0.2396003617136947  phases=1 kW=1 pf=1
new load.load_13662834 bus1=13662834.3 kv=0.2396003617136947  phases=1 kW=1 pf=1
new load.load_13663994 bus1=13663994.1 kv=0.2396003617136947  phases=1 kW=1 pf=1
new load.load_13662817 bus1=13662817.2 kv=0.2396003617136947  phases=1 kW=1 pf=1
new load.load_13662813 bus1=13662813.3 kv=0.2396003617136947  phases=1 kW=1 pf=1
new load.load_11951940 bus1=11951940.1 kv=0.2396003617136947  phases=1 kW=1 pf=1
new load.load_13662800 bus1=13662800.2 kv=0.2396003617136947  phases=1 kW=1 pf=1
new load.load_13662876 bus1=13662876.3 kv=0.2396003617136947  phases=1 kW=1 pf=1
new load.load_13678910 bus1=13678910.1 kv=0.2396003617136947  phases=1 kW=1 pf=1
new load.load_13683059 bus1=13683059.2 kv=0.2396003617136947  phases=1 kW=1 pf=1
new load.load_13678896 bus1=13678896.3 kv=0.2396003617136947  phases=1 kW=1 pf=1
new load.load_13686791 bus1=13686791.1 kv=0.2396003617136947  phases=1 kW=1 pf=1
new load.load_13685507 bus1=13685507.2 kv=0.2396003617136947  phases=1 kW=1 pf=1
new load.load_13680041 bus1=13680041.3 kv=0.2396003617136947  phases=1 kW=1 pf=1
new load.load_13680732 bus1=13680732.1 kv=0.2396003617136947  phases=1 kW=1 pf=1
new load.load_13692222 bus1=13692222.2 kv=0.2396003617136947  phases=1 kW=1 pf=1
new load.load_13692227 bus1=13692227.3 kv=0.2396003617136947  phases=1 kW=1 pf=1
new load.load_13692216 bus1=13692216.1 kv=0.2396003617136947  phases=1 kW=1 pf=1
new load.load_13685488 bus1=13685488.2 kv=0.2396003617136947  phases=1 kW=1 pf=1
new load.load_13664094 bus1=13664094.3 kv=0.2396003617136947  phases=1 kW=1 pf=1
new load.load_13664096 bus1=13664096.1 kv=0.2396003617136947  phases=1 kW=1 pf=1
new load.load_13664012 bus1=13664012.2 kv=0.2396003617136947  phases=1 kW=1 pf=1
new load.load_13681842 bus1=13681842.3 kv=0.2396003617136947  phases=1 kW=1 pf=1
new load.load_13664036 bus1=13664036.1 kv=0.2396003617136947  phases=1 kW=1 pf=1
new load.load_13685502 bus1=13685502.2 kv=0.2396003617136947  phases=1 kW=1 pf=1
new load.load_13664017 bus1=13664017.3 kv=0.2396003617136947  phases=1 kW=1 pf=1
new load.load_13692225 bus1=13692225.1 kv=0.2396003617136947  phases=1 kW=1 pf=1
new load.load_13692212 bus1=13692212.2 kv=0.2396003617136947  phases=1 kW=1 pf=1
new load.load_13683068 bus1=13683068.3 kv=0.2396003617136947  phases=1 kW=1 pf=1
new load.load_13686809 bus1=13686809.1 kv=0.2396003617136947  phases=1 kW=1 pf=1
new load.load_13685577 bus1=13685577.2 kv=0.2396003617136947  phases=1 kW=1 pf=1
new load.load_13680024 bus1=13680024.3 kv=0.2396003617136947  phases=1 kW=1 pf=1
new load.load_13662809 bus1=13662809.1 kv=0.2396003617136947  phases=1 kW=1 pf=1
new load.load_13678902 bus1=13678902.2 kv=0.2396003617136947  phases=1 kW=1 pf=1
new load.load_13678899 bus1=13678899.3 kv=0.2396003617136947  phases=1 kW=1 pf=1
new load.load_13683056 bus1=13683056.1 kv=0.2396003617136947  phases=1 kW=1 pf=1
new load.load_13685499 bus1=13685499.2 kv=0.2396003617136947  phases=1 kW=1 pf=1
new load.load_13685574 bus1=13685574.3 kv=0.2396003617136947  phases=1 kW=1 pf=1
new load.load_13683070 bus1=13683070.1 kv=0.2396003617136947  phases=1 kW=1 pf=1
new load.load_13686786 bus1=13686786.2 kv=0.2396003617136947  phases=1 kW=1 pf=1
new load.load_13681832 bus1=13681832.3 kv=0.2396003617136947  phases=1 kW=1 pf=1
new load.load_13685472 bus1=13685472.1 kv=0.2396003617136947  phases=1 kW=1 pf=1
new load.load_13685552 bus1=13685552.2 kv=0.2396003617136947  phases=1 kW=1 pf=1
new load.load_13664028 bus1=13664028.3 kv=0.2396003617136947  phases=1 kW=1 pf=1
new load.load_13686803 bus1=13686803.1 kv=0.2396003617136947  phases=1 kW=1 pf=1
new load.load_13678908 bus1=13678908.2 kv=0.2396003617136947  phases=1 kW=1 pf=1
new load.load_13664041 bus1=13664041.3 kv=0.2396003617136947  phases=1 kW=1 pf=1
new load.load_13692211 bus1=13692211.1 kv=0.2396003617136947  phases=1 kW=1 pf=1
new load.load_13686806 bus1=13686806.2 kv=0.2396003617136947  phases=1 kW=1 pf=1
new load.load_13686797 bus1=13686797.3 kv=0.2396003617136947  phases=1 kW=1 pf=1
new load.load_13685480 bus1=13685480.1 kv=0.2396003617136947  phases=1 kW=1 pf=1
new load.load_13685546 bus1=13685546.2 kv=0.2396003617136947  phases=1 kW=1 pf=1
new load.load_13678893 bus1=13678893.3 kv=0.2396003617136947  phases=1 kW=1 pf=1
new load.load_13678905 bus1=13678905.1 kv=0.2396003617136947  phases=1 kW=1 pf=1
new load.load_13678890 bus1=13678890.2 kv=0.2396003617136947  phases=1 kW=1 pf=1
new load.load_13686819 bus1=13686819.3 kv=0.2396003617136947  phases=1 kW=1 pf=1
new load.load_13685486 bus1=13685486.1 kv=0.2396003617136947  phases=1 kW=1 pf=1
new load.load_13686816 bus1=13686816.2 kv=0.2396003617136947  phases=1 kW=1 pf=1
new load.load_13664014 bus1=13664014.3 kv=0.2396003617136947  phases=1 kW=1 pf=1
new load.load_13680729 bus1=13680729.1 kv=0.2396003617136947  phases=1 kW=1 pf=1
new load.load_13662878 bus1=13662878.2 kv=0.2396003617136947  phases=1 kW=1 pf=1
new load.load_13664022 bus1=13664022.3 kv=0.2396003617136947  phases=1 kW=1 pf=1
new load.load_13662830 bus1=13662830.1 kv=0.2396003617136947  phases=1 kW=1 pf=1
new load.load_13662859 bus1=13662859.2 kv=0.2396003617136947  phases=1 kW=1 pf=1
new load.load_13664030 bus1=13664030.3 kv=0.2396003617136947  phases=1 kW=1 pf=1
new load.load_13680727 bus1=13680727.1 kv=0.2396003617136947  phases=1 kW=1 pf=1
new load.load_13686788 bus1=13686788.2 kv=0.2396003617136947  phases=1 kW=1 pf=1
new load.load_13685535 bus1=13685535.3 kv=0.2396003617136947  phases=1 kW=1 pf=1
new load.load_13686814 bus1=13686814.1 kv=0.2396003617136947  phases=1 kW=1 pf=1
new load.load_13680705 bus1=13680705.2 kv=0.2396003617136947  phases=1 kW=1 pf=1
new load.load_13680725 bus1=13680725.3 kv=0.2396003617136947  phases=1 kW=1 pf=1
new load.load_13681835 bus1=13681835.1 kv=0.2396003617136947  phases=1 kW=1 pf=1
new load.load_13681783 bus1=13681783.2 kv=0.2396003617136947  phases=1 kW=1 pf=1
new load.load_13664116 bus1=13664116.3 kv=0.2396003617136947  phases=1 kW=1 pf=1
new load.load_13680710 bus1=13680710.1 kv=0.2396003617136947  phases=1 kW=1 pf=1
new load.load_13683071 bus1=13683071.2 kv=0.2396003617136947  phases=1 kW=1 pf=1
new load.load_13664033 bus1=13664033.3 kv=0.2396003617136947  phases=1 kW=1 pf=1
new load.load_13684257 bus1=13684257.1 kv=0.2396003617136947  phases=1 kW=1 pf=1
new load.load_13680720 bus1=13680720.2 kv=0.2396003617136947  phases=1 kW=1 pf=1
new load.load_13680699 bus1=13680699.3 kv=0.2396003617136947  phases=1 kW=1 pf=1
new load.load_13680664 bus1=13680664.1 kv=0.2396003617136947  phases=1 kW=1 pf=1
new load.load_13686739 bus1=13686739.2 kv=0.2396003617136947  phases=1 kW=1 pf=1
new load.load_13686737 bus1=13686737.3 kv=0.2396003617136947  phases=1 kW=1 pf=1
new load.load_13681837 bus1=13681837.1 kv=0.2396003617136947  phases=1 kW=1 pf=1
new load.load_13681788 bus1=13681788.2 kv=0.2396003617136947  phases=1 kW=1 pf=1
new load.load_13680026 bus1=13680026.3 kv=0.2396003617136947  phases=1 kW=1 pf=1
new load.load_13686775 bus1=13686775.1 kv=0.2396003617136947  phases=1 kW=1 pf=1
new load.load_13683050 bus1=13683050.2 kv=0.2396003617136947  phases=1 kW=1 pf=1
new load.load_13663993 bus1=13663993.3 kv=0.2396003617136947  phases=1 kW=1 pf=1
new load.load_13685540 bus1=13685540.1 kv=0.2396003617136947  phases=1 kW=1 pf=1
new load.load_13664001 bus1=13664001.2 kv=0.2396003617136947  phases=1 kW=1 pf=1
new load.load_13664003 bus1=13664003.3 kv=0.2396003617136947  phases=1 kW=1 pf=1
new load.load_13680035 bus1=13680035.1 kv=0.2396003617136947  phases=1 kW=1 pf=1
new load.load_13680038 bus1=13680038.2 kv=0.2396003617136947  phases=1 kW=1 pf=1
new load.load_13662856 bus1=13662856.3 kv=0.2396003617136947  phases=1 kW=1 pf=1
new load.load_13662868 bus1=13662868.1 kv=0.2396003617136947  phases=1 kW=1 pf=1
new load.load_13662796 bus1=13662796.2 kv=0.2396003617136947  phases=1 kW=1 pf=1
new load.load_13662792 bus1=13662792.3 kv=0.2396003617136947  phases=1 kW=1 pf=1
new load.load_13662872 bus1=13662872.1 kv=0.2396003617136947  phases=1 kW=1 pf=1
new load.load_13685553 bus1=13685553.2 kv=0.2396003617136947  phases=1 kW=1 pf=1
new load.load_13685459 bus1=13685459.3 kv=0.2396003617136947  phases=1 kW=1 pf=1
new load.load_13680045 bus1=13680045.1 kv=0.2396003617136947  phases=1 kW=1 pf=1
new load.load_13686780 bus1=13686780.2 kv=0.2396003617136947  phases=1 kW=1 pf=1
new load.load_13692230 bus1=13692230.3 kv=0.2396003617136947  phases=1 kW=1 pf=1
new load.load_13681840 bus1=13681840.1 kv=0.2396003617136947  phases=1 kW=1 pf=1
new load.load_13685580 bus1=13685580.2 kv=0.2396003617136947  phases=1 kW=1 pf=1
new load.load_13683061 bus1=13683061.3 kv=0.2396003617136947  phases=1 kW=1 pf=1
new load.load_13683063 bus1=13683063.1 kv=0.2396003617136947  phases=1 kW=1 pf=1
new load.load_13686778 bus1=13686778.2 kv=0.2396003617136947  phases=1 kW=1 pf=1
new load.load_13685543 bus1=13685543.3 kv=0.2396003617136947  phases=1 kW=1 pf=1
new load.load_13684263 bus1=13684263.1 kv=0.2396003617136947  phases=1 kW=1 pf=1
new load.load_13684267 bus1=13684267.2 kv=0.2396003617136947  phases=1 kW=1 pf=1
new load.load_13686704 bus1=13686704.3 kv=0.2396003617136947  phases=1 kW=1 pf=1
new load.load_13686705 bus1=13686705.1 kv=0.2396003617136947  phases=1 kW=1 pf=1
new load.load_13686701 bus1=13686701.2 kv=0.2396003617136947  phases=1 kW=1 pf=1
new load.load_13686703 bus1=13686703.3 kv=0.2396003617136947  phases=1 kW=1 pf=1
new load.load_13683054 bus1=13683054.1 kv=0.2396003617136947  phases=1 kW=1 pf=1
new load.load_13664039 bus1=13664039.2 kv=0.2396003617136947  phases=1 kW=1 pf=1
new load.load_13685475 bus1=13685475.3 kv=0.2396003617136947  phases=1 kW=1 pf=1
new load.load_13685468 bus1=13685468.1 kv=0.2396003617136947  phases=1 kW=1 pf=1
new load.load_13664102 bus1=13664102.2 kv=0.2396003617136947  phases=1 kW=1 pf=1
new load.load_13664111 bus1=13664111.3 kv=0.2396003617136947  phases=1 kW=1 pf=1
new load.load_13664108 bus1=13664108.1 kv=0.2396003617136947  phases=1 kW=1 pf=1
new load.load_13664105 bus1=13664105.2 kv=0.2396003617136947  phases=1 kW=1 pf=1
new load.load_13685529 bus1=13685529.3 kv=0.2396003617136947  phases=1 kW=1 pf=1
new load.load_13685509 bus1=13685509.1 kv=0.2396003617136947  phases=1 kW=1 pf=1
new load.load_13685496 bus1=13685496.2 kv=0.2396003617136947  phases=1 kW=1 pf=1
new load.load_13685532 bus1=13685532.3 kv=0.2396003617136947  phases=1 kW=1 pf=1
new load.load_13685538 bus1=13685538.1 kv=0.2396003617136947  phases=1 kW=1 pf=1
new load.load_13686800 bus1=13686800.2 kv=0.2396003617136947  phases=1 kW=1 pf=1
new load.load_13685470 bus1=13685470.3 kv=0.2396003617136947  phases=1 kW=1 pf=1
new load.load_13685465 bus1=13685465.1 kv=0.2396003617136947  phases=1 kW=1 pf=1
new load.load_13684255 bus1=13684255.2 kv=0.2396003617136947  phases=1 kW=1 pf=1
new load.load_13680019 bus1=13680019.3 kv=0.2396003617136947  phases=1 kW=1 pf=1
new load.load_13684228 bus1=13684228.1 kv=0.2396003617136947  phases=1 kW=1 pf=1
new load.load_13685545 bus1=13685545.2 kv=0.2396003617136947  phases=1 kW=1 pf=1
new load.load_13664009 bus1=13664009.3 kv=0.2396003617136947  phases=1 kW=1 pf=1
new load.load_13664025 bus1=13664025.1 kv=0.2396003617136947  phases=1 kW=1 pf=1
new load.load_13663990 bus1=13663990.2 kv=0.2396003617136947  phases=1 kW=1 pf=1
new load.load_13685483 bus1=13685483.3 kv=0.2396003617136947  phases=1 kW=1 pf=1
new load.load_13680021 bus1=13680021.1 kv=0.2396003617136947  phases=1 kW=1 pf=1
new load.load_13685505 bus1=13685505.2 kv=0.2396003617136947  phases=1 kW=1 pf=1
new load.load_13685494 bus1=13685494.3 kv=0.2396003617136947  phases=1 kW=1 pf=1
new load.load_13662848 bus1=13662848.1 kv=0.2396003617136947  phases=1 kW=1 pf=1
new load.load_13684269 bus1=13684269.2 kv=0.2396003617136947  phases=1 kW=1 pf=1
new load.load_13680707 bus1=13680707.3 kv=0.2396003617136947  phases=1 kW=1 pf=1
new load.load_13681799 bus1=13681799.1 kv=0.2396003617136947  phases=1 kW=1 pf=1
new load.load_13680723 bus1=13680723.2 kv=0.2396003617136947  phases=1 kW=1 pf=1
new load.load_13680696 bus1=13680696.3 kv=0.2396003617136947  phases=1 kW=1 pf=1
new load.load_13686773 bus1=13686773.1 kv=0.2396003617136947  phases=1 kW=1 pf=1
new load.load_13680688 bus1=13680688.2 kv=0.2396003617136947  phases=1 kW=1 pf=1
new load.load_13680666 bus1=13680666.3 kv=0.2396003617136947  phases=1 kW=1 pf=1
new load.load_13680712 bus1=13680712.1 kv=0.2396003617136947  phases=1 kW=1 pf=1
new load.load_13680694 bus1=13680694.2 kv=0.2396003617136947  phases=1 kW=1 pf=1
